PARSE    TITLE 'P D S  --  PDS PARSE PROCESSING ROUTINE      09/28/88'  00010000
         SPACE 2                                                        00020099
         MACRO                                                          00030000
&L       $T    &Z,&PF,&RTN,&O,&PCL,&P,&PP,&CR,&HD                       00040000
         LCLA  &NUM                                                     00050000
         LCLC  &NAME,&P2                                                00060000
&NAME    SETC  '&Z'.' '                                                 00070000
&L       DC    0F'0',CL8'&NAME'                *** SUBCOMMAND NAME      00080000
&P2      SETC  '&RTN'                                                   00090000
         AIF   ('&P2'(1,1) EQ '0').RTT00                                00100000
&NUM     SETA  7                                                        00110000
.DROPRT  ANOP                                                           00120000
         AIF   ('&P2'(1,1) NE '+').RTTP2                                00130000
&P2      SETC  '&P2'(2,&NUM)                                            00140000
&NUM     SETA  &NUM-1                                                   00150000
         AGO   .DROPRT                                                  00160000
.RTTP2   DC    X'&PF',VL3(&P2)                 *** FLAGS, RTN ADDRESS   00170000
         AGO   .RTTPP                                                   00180000
.RTT00   DC    X'&PF',AL3(&P2)                 *** FLAGS, RTN ADDRESS   00190000
.RTTPP   ANOP                                                           00200000
&P2      SETC  '&PCL'                                                   00210000
         AIF   ('&P2'(1,1) EQ '0').PCT00                                00220000
&NUM     SETA  7                                                        00230000
.DROPPC  ANOP                                                           00240000
         AIF   ('&P2'(1,1) NE '+').PCTP2                                00250000
&P2      SETC  '&P2'(2,&NUM)                                            00260000
&NUM     SETA  &NUM-1                                                   00270000
         AGO   .DROPPC                                                  00280000
.PCTP2   DC    AL1(&O),AL3(&P2)                *** FLAGS, PCL ADDRESS   00290000
         AGO   .PCTPP                                                   00300000
.PCT00   DC    AL1(&O),AL3(&P2)                *** FLAGS, PCL ADDRESS   00310000
.PCTPP   ANOP                                                           00320000
&P2      SETC  '&PP'                                                    00330000
         AIF   ('&P2'(1,1) EQ '0').PPT00                                00340000
&NUM     SETA  7                                                        00350000
.DROPPP  ANOP                                                           00360000
         AIF   ('&P2'(1,1) NE '+').PPTP2                                00370000
&P2      SETC  '&P2'(2,&NUM)                                            00380000
&NUM     SETA  &NUM-1                                                   00390000
         AGO   .DROPPP                                                  00400000
.PPTP2   DC    AL1(&P),AL3(&P2)                *** FLAGS, PP ADDRESS    00410000
         AGO   .PPTPP                                                   00420000
.PPT00   DC    AL1(&P),AL3(&P2)                *** FLAGS, PP ADDRESS    00430000
.PPTPP   ANOP                                                           00440000
         DC    CL8'&CR'                        *** ATTACHED TSO COMMAND 00450000
         DC    AL2(&HD-ONIX),XL2'FFFF'         *** HELP, AVAILABLE      00460000
.EXIT    MEND                                                           00470000
         SPACE 2                                                        00480000
         MACRO                                                          00490000
&L       COND  &OPRAND,&OPRAT                                           00500000
         AIF   ('&L' EQ '').EXIT                                        00510000
         &OPRAND &OPRAT                                                 00520000
.EXIT    MEND                                                           00530000
         SPACE 2                                                        00540000
         MACRO                                                          00550000
&L       CONDIKJ &OPRAT                                                 00560099
         AIF   ('&L' EQ '').EXIT                                        00570000
         IKJNAME &OPRAT                                                 00580000
.EXIT    MEND                                                           00590000
         SPACE 2                                                        00600000
         PRINT OFF                                                      00610000
         COPY  #PDSGEN                                                  00620000
         SPACE 2                                                        00630000
&CBRO    SETC  'BROWSE'   ***  SPF BROWSE SERVICE NAME                  00640000
&CEDI    SETC  'EDIT'     ***  SPF EDIT SERVICE NAME                    00650000
&CVIE    SETC  'VIEW'     ***  SPF VIEW SERVICE NAME          DRK JUL01 00660000
         SPACE 1                                                        00670000
         PRINT ON                                                       00680000
         SPACE 1                                                        00690000
         AIF   ('&CISP' EQ '').NOSPF                                    00700000
         AIF   ('&CISP' EQ 'SPF').SMNOTE                                00710000
         AIF   ('&CISP' EQ 'ISPF').SMNOTE                               00720000
         AIF   ('&CISP' EQ 'ISPFV2').SMNOTE                             00730000
         SPACE 3                                                        00740000
         MNOTE 12,'*** CISP -- SPF CONTROL &CISP IS INVALID ***'        00750000
         SPACE 2                                                        00760000
         AGO   .NOGEN                                                   00770000
.NOSPF   ANOP                                                           00780000
*&CISP    SETC  'NO SPF'                                                00790000
&NBRO    SETC  ''          *** NULLIFY THE SPF SUBCOMMANDS -- NO SPF    00800000
&NEDI    SETC  ''          *** NULLIFY THE SPF SUBCOMMANDS -- NO SPF    00810000
&NVIE    SETC  ''          *** NULLIFY THE SPF SUBCOMMANDS -- NO SPF    00820000
&NISP    SETC  ''          *** NULLIFY THE SPF SUBCOMMANDS -- NO SPF    00830000
&NSPF    SETC  ''          *** NULLIFY THE SPF SUBCOMMANDS -- NO SPF    00840000
&NMML    SETC  ''          *** NULLIFY THE SPF SUBCOMMANDS -- NO SPF    00850000
&NISM    SETC  ''          *** NULLIFY THE SPF SUBCOMMANDS -- NO SPF    00860000
&NISX    SETC  ''          *** NULLIFY THE SPF SUBCOMMANDS -- NO SPF    00870000
&NEDR    SETC  ''          *** NULLIFY THE SPF SUBCOMMANDS -- NO SPF    00880000
&IMLX    SETC  ''          *** NULLIFY THE SPF SUBCOMMANDS -- NO SPF    00890000
.SMNOTE  ANOP                                                           00900000
         PRINT NOGEN                                                    00910099
         TITLE 'P D S  --  PDS PARSE PROCESSING ROUTINE      09/28/88'  00920000
*                                                                       00930000
*        PARSE INTERFACE SUBROUTINE                                     00940000
*                                                                       00950000
         SPACE 1                                                        00960000
PARSE    CSECT                                                          00970000
R0       EQU   0                                                        00980000
R1       EQU   1                                                        00990000
R2       EQU   2                                                        01000000
R3       EQU   3                                                        01010000
R4       EQU   4                                                        01020000
R5       EQU   5                                                        01030000
R6       EQU   6                                                        01040000
R7       EQU   7                                                        01050000
R8       EQU   8                                                        01060000
R9       EQU   9                                                        01070000
R10      EQU   10                                                       01080000
R11      EQU   11                                                       01090000
R12      EQU   12                                                       01100000
R13      EQU   13                                                       01110000
R14      EQU   14                                                       01120000
R15      EQU   15                                                       01130000
FF       EQU   255                                                      01140000
         USING *,R8                                                     01150000
         USING WORKAREA,R7                                              01160000
         ENTRY $TBL,$ATT,$PRI,$CHA                                      01170000
         ST    R8,R8PARSE                                               01180000
         ST    R14,R14PARSE                                             01190000
         LR    R8,R15                                                   01200000
         L     R1,=A($CHA)              START OF CHANGE ENTRY           01210000
         CLC   ##ADRPCL+1(3),13(R1)     PARSE FOR NEW DATA SET?         01220000
         BNE   PARSE2                   NO, BRANCH                      01230000
         STAX  ,                        YES, CANCEL ANY PREVIOUS STAX   01240000
PARSE2   BAS   R2,FREEPDL               FREE ANY PREVIOUS PARSE STORAGE 01250000
         SPACE 1                                                        01260000
         LA    R15,PARMPARS             AREA FOR PARSE PARAMETERS       01270000
         USING PPL,R15                  BASE FOR PARSE PARAMETER LIST   01280000
         SPACE 1                                                        01290000
         L     R1,ADDRUPT                                               01300000
         L     R2,ADDRECT                                               01310000
         LA    R3,ATTNECB                                               01320000
         L     R4,##ADRPCL                                              01330000
         LA    R5,ADDRANSR                                              01340000
         L     R6,ADDRCBUF                                              01350000
***      LA    R7,MAINSAVE                                              01360000
         SPACE 1                                                        01370000
         TM    ##ADRPC#,@S+@G       NON-PARTITIONED AND MEMBER NEEDED?  01380000
         BNO   PARSE4               NO, BRANCH                          01390000
         SPACE 1                                                        01400000
*    THE FOLLOWING 6 LINES OF CODE ADD A MEMBER PARAMETER WHEN          01410000
*      REQUIRED FOR NON-PARTITIONED DATA SET SUBCOMMAND PARSE.          01420000
         LH    R14,2(,R6)           OFFSET FOR OPERANDS                 01430000
         A     R14,=F'-2'           LESS TWO                            01440000
         STH   R14,2(,R6)           UPDATE THE OFFSET                   01450000
         LA    R14,0(R6,R14)        POINT TO THE NEW OPERAND            01460000
         MVI   4(R14),C'Z'          DUMMY MEMBER NAME                   01470000
         MVI   5(R14),X'40'         SEPARATOR CHARACTER                 01480000
         SPACE 1                                                        01490000
PARSE4   STM   R1,R7,PPLUPT         INITIALIZE PPLUPT, PPLECT, PPLECB   01500000
*                                   PPLPCL, PPLANS, PPLCBUF AND PPLUWA  01510000
         DROP  R15                                                      01520000
         LR    R1,R15                                                   01530000
         MVI   ATTNECB,1            FLAG -- CAN BE ATTENTIONED          01540000
         SPACE 2                                                        01550000
         L     R15,ADDRPARS         INVOKE                              01560000
         BASR  R14,R15                    PARSE                         01570000
         STC   R15,R14PARSE                                             01580000
         MVI   ATTNECB,0            CLEAR ATTENTION ECB                 01590000
         SPACE 3                                                        01600000
         L     R6,ADDRANSR             PARSE RESULT BASE REGISTER       01610000
         LTR   R15,R15                 GOOD PARSE?                      01620000
         BNZ   PARSPOST                NO, BRANCH                       01630000
         SPACE 1                                                        01640000
         ICM   R4,B'0111',##ADRPAR+1   ANY PROCESSING ROUTINE?          01650000
         BNZR  R4                      YES, BRANCH                      01660000
         SPACE 3                                                        01670000
*** PARSE POST PROCESSING OF OPERANDS IS COMPLETE                       01680000
PARSPOST SR    R15,R15                                                  01690000
         IC    R15,R14PARSE                                             01700000
         SPACE 1                                                        01710000
         LA    R14,MAXPARSE         RETURN CODE LIMIT                   01720000
         CR    R15,R14              RETURN CODE WITHIN LIMITS?          01730000
         BH    PARSEBAD             NO, ERROR                           01740000
         SPACE 1                                                        01750000
         LA    R3,4                 OFFSET OF RETURN IF SUCCESSFUL      01760000
         B     *+4(R15)             PROCESS RETURN CODE                 01770000
PARSERET B     PARSEOK                00 - SUCCESSFUL                   01780000
         B     EXIT8N                 04 - PARSE UNABLE TO PROMPT       01790099
         B     PARSERR                08 - USER ENTERED ATTENTION       01800000
         B     PARSEBAD               12 - INVALID PARAMETERS           01810000
         B     PARSEBAD               16 - PARSE INTERNAL FAILURE       01820000
         B     EXIT8N                 20 - VALIDITY CHECK ERROR         01830000
MAXPARSE EQU   *-PARSERET                                               01840000
         SPACE 2                                                        01850000
PARSEBAD LA    R1,GFPARMS                                               01860000
         ST    R1,GFPARMP           SAVE ADDRESS OF PARMLIST            01870000
         L     R0,ADDRFF02          ADDRESS OF IKJEFF02                 01880000
         STM   R15,R0,GFRCODE       SAVE GFRCODE AND GF02PTR            01890000
         LA    R1,GFPARSE                                               01900000
         STH   R1,GFCALLID          SAVE CALLER-ID FOR PARSE            01910000
         L     R0,ADDRCPPL          CPPL                                01920000
         LA    R1,ATTNECB           ATTENTION ECB                       01930000
         STM   R0,R1,GFCPPLP        SAVE GFCPPLP AND GFECBP             01940000
         MVI   ATTNECB,0            CLEAR THE ECB                       01950000
         LINK  EP=IKJEFF19,MF=(E,GFPARMP)                               01960000
         CLI   R14PARSE,X'4'        USER ENTER ATTENTION?               01970000
         BE    PARSERR              YES, BRANCH -- IGNORE COMMAND       01980000
         LTR   R15,R15              ERROR MESSAGE OUTPUT?               01990000
         BZ    EXIT8N               YES, BRANCH                         02000000
         CVD   R15,DOUBLE                                               02010000
         MVI   MTLEN,4                                                  02020000
         MVC   INSERT#1(4),=X'40202120'                                 02030000
         ED    INSERT#1(4),DOUBLE+6                                     02040000
         MVI   INSERT#1,C'='                                            02050000
         LA    R1,L834$1                                                02060000
         B     EXIT8M                                                   02070000
         SPACE 1                                                        02080000
PARSERR  SR    R3,R3                RETURN AT OFFSET 0                  02090000
         SPACE 1                                                        02100000
PARSEOK  BAS   R2,FREEPDL           FREE PARSE STORAGE                  02110000
         L     R8,R8PARSE           ORIGINAL BASE REGISTER              02120000
         L     R14,R14PARSE         EXIT BASE ADDRESS                   02130000
         B     0(R3,R14)            EXIT FROM PARSE AT +0 OR +4         02140000
         SPACE 2                                                        02150000
PARSATTN BAS   R2,FREEPDL           FREE PARSE STORAGE                  02160000
         B     NEWCMD                                                   02170000
         SPACE 2                                                        02180000
*                                                                       02190000
*        PARSE CLEANUP ROUTINE                                          02200000
*                                                                       02210000
         SPACE 1                                                        02220000
FREEPDL  IKJRLSA ADDRANSR            RELEASE THE STORAGE                02230000
         SPACE 1                                                        02240000
         XC    ADDRANSR,ADDRANSR                                        02250000
         BR    R2                                                       02260000
         SPACE 3                                                        02270000
*                                                                       02280000
*        ROUTINE TO CONVERT HEXADECIMAL INPUT TO BINARY                 02290000
*                                                                       02300000
         SPACE 1                                                        02310000
*R5          START OF STRING                                            02320000
*R1          LENGTH OF STRING; WHERE OUTPUT GOES                        02330000
*MSGTEXT1    PROMPTING MESSAGE FOR ANY ERROR                            02340000
*MSGTEXT2+0  LENGTH OF RESULT                                           02350000
*MSGTEXT2+1  MAXIMUM LENGTH OF RESULT                                   02360000
*MSGTEXT2+4  RESULTANT STRING                                           02370000
*R0          RESULT IN BINARY (UP TO FOUR BYTES)                        02380000
*R2          RETURN REGISTER                                            02390000
         SPACE 1                                                        02400000
HEXC     STC   R1,MSGTEXT2+2        ORIGINAL STRING LENGTH              02410000
         LA    R3,1(,R1)            STRING LENGTH +1                    02420000
         N     R3,=F'-2'            NEXT EVEN NUMBER                    02430000
         SR    R15,R15              ZERO                                02440000
         LA    R0,2                 PAIRWISE COUNTER                    02450000
         BCTR  R5,0                 PREPARE FOR THE FIRST ADD           02460000
         CR    R1,R3                EVEN LENGTH ORIGINALLY?             02470000
         SRL   R3,1                                                     02480000
         STC   R3,MSGTEXT2          (STRING LENGTH +1)/2                02490000
         LA    R1,MSGTEXT2+4        WHERE OUTPUT GOES                   02500000
         BNE   HEXC20               NO, BRANCH                          02510000
         SPACE 1                                                        02520000
HEXC10   LA    R5,1(,R5)            NEXT CHARACTER                      02530000
         IC    R15,0(,R5)           GET A BYTE TO CONVERT               02540000
         CLI   0(R5),C'0'                                               02550000
         BL    *+12                 0-9?                                02560000
         CLI   0(R5),C'9'                                               02570000
         BNH   HEXC20               YES, BRANCH                         02580000
         SPACE 1                                                        02590000
         LA    R15,9(,R15)          NO, ADJUST LOW DIGIT 1-5 TO A-F     02600000
         CLI   0(R5),C'A'           BELOW AN A?                         02610000
         BL    HEXC50               YES, INVALID                        02620000
         CLI   0(R5),C'F'           ABOVE AN F?                         02630000
         BH    HEXC50               YES, INVALID                        02640000
         SPACE 1                                                        02650000
HEXC20   SLL   R15,28               SHIFT                               02660000
         SLDL  R14,4                GET A GOOD DIGIT                    02670000
         BCT   R0,HEXC10            DO THE NEXT DIGIT OF A PAIR         02680000
         LA    R0,2                 PAIRWISE COUNTER                    02690000
         STC   R14,0(,R1)           SAVE AN OUTPUT CHARACTER            02700000
         LA    R1,1(,R1)            ANOTHER OUTPUT CHARACTER            02710000
         BCT   R3,HEXC10            DO ALL DIGITS                       02720000
         SPACE 2                                                        02730000
         CLC   MSGTEXT2(1),MSGTEXT2+1  TOO MANY DIGITS?                 02740000
         BH    HEXC40                  YES, INVALID                     02750000
         ICM   R0,B'1111',MSGTEXT2+4   RESULT REGISTER                  02760000
         CLI   MSGTEXT2,3              LENGTH:3                         02770000
         BH    4(R2)                     ABOVE, DONE                    02780000
         SRL   R0,8                                                     02790000
         BE    4(R2)                     EQUAL, RETURN                  02800000
         SRL   R0,8                                                     02810000
         CLI   MSGTEXT2,1              LENGTH:1                         02820000
         BH    4(R2)                     ABOVE, DONE                    02830000
         SRL   R0,8                                                     02840000
         B     4(R2)                     EQUAL, RETURN                  02850000
         SPACE 3                                                        02860000
HEXC40   M$MSG L840                 STRING IS TOO LONG                  02870000
         B     HEXC60                                                   02880000
         SPACE 1                                                        02890000
HEXC50   M$MSG L841                 INVALID HEXADECIMAL DIGITS          02900000
         SPACE 1                                                        02910000
HEXC60  M$PUTGT MSGTEXT1,ATTN=0(R2) SECOND PART OF MESSAGE              02920000
         L     R5,ADDRCBUF          ENTERED DATA                        02930000
         LH    R1,0(,R5)            LENGTH OF STRING                    02940000
         LA    R5,4(,R5)            START OF DATA IN THE STRING         02950000
         SH    R1,=H'5'             VALID MACHINE LENGTH?               02960000
         LA    R3,0(R5,R1)          LAST BYTE OF INPUT STRING           02970000
         BZ    HEXC90               MAYBE, CHECK FURTHER                02980000
         BNP   HEXC60               NO, NULL STRING -- PROMPT AGAIN     02990000
         SPACE 1                                                        03000000
HEXC70   CLI   0(R3),X'40'          SCAN                                03010000
         BNE   HEXC80                   BACKWARDS                       03020000
         BCTR  R3,0                              FOR A                  03030000
         BCT   R1,HEXC70                               NON-BLANK        03040000
         B     HEXC90               POSSIBLE STRING -- CHECK            03050000
         SPACE 1                                                        03060000
HEXC80   CLI   0(R5),X'40'          SCAN                                03070000
         BNE   HEXC90                   FORWARDS                        03080000
         LA    R5,1(,R5)                        FOR A                   03090000
         BCT   R1,HEXC80                              NON-BLANK         03100000
         SPACE 1                                                        03110000
HEXC90   CLI   0(R5),X'40'          REAL STRING?                        03120000
         BE    HEXC60               NO, PROMPT AGAIN                    03130000
         MVI   MSGTEXT2+4,X'40'     BLANKS FOR                          03140000
         MVC   MSGTEXT2+5(40),MSGTEXT2+4      UPPER-CASING INPUTS       03150000
         OC    0(*-*,R5),MSGTEXT2+4 <<EXECUTED>>                        03160000
         EX    R1,*-6               UPPER-CASE THE INPUT DATA           03170000
         LA    R1,1(,R1)            ACTUAL STRING LENGTH                03180000
         B     HEXC                 PARSE THIS NEW STRING               03190000
         SPACE 2                                                        03200000
PACKMAX  LH    R15,4(,R1)             NUMBER OF DIGITS                  03210000
         S     R15,=F'1'              ANY CODED?                        03220000
         BM    4(R14)                 NO, RETURN AT +4                  03230000
         L     R1,0(,R1)              POINT TO INPUT STRING             03240000
         EX    R15,PACKNUMB           PACK ALL THE DIGITS               03250000
         CVB   R1,DOUBLE              CONVERT TO BINARY                 03260000
         BR    R14                    RETURN AT +0                      03270000
PACKNUMB PACK  DOUBLE(8),0(*-*,R1)    <<EXECUTED>>                      03280000
         SPACE 1                                                        03290099
CHKTHEN  DS    0H                                             DRK JAN18 03300099
         ICM   R1,B'1111',#ACTIONT    THEN ACTION                       03310099
         BZ    CHKELSE                NO                                03320099
         CLC   0(8,R1),MEMLI$T        MEMLIST COMMAND                   03330099
         BE    CHKRESET               YES                               03340099
         BR    R14                    NO, RETURN                        03350099
CHKELSE  DS    0H                                             DRK JAN18 03360099
         ICM   R1,B'1111',#ACTIONE    ELSE ACTION                       03370099
         BZR   R14                    NO                                03380099
         CLC   0(8,R1),MEMLI$T        MEMLIST COMMAND                   03390099
         BE    CHKRESET               YES                               03400099
         BR    R14                    NO, RETURN                        03410099
CHKRESET DS    0H                                             DRK JAN18 03420099
         TM    #ACTIONT,X'80'         NEWML                             03430099
         BO    SETRESET               YES                               03440099
         TM    #ACTIONE,X'80'         NEWML                             03450099
         BO    SETRESET               YES                               03460099
         TM    FLAGSZZ,ML#RES         MEML RESET TOGGLE ON?             03470099
         BNOR  R14                    NO                                03480099
SETRESET DS    0H                                             DRK JAN18 03490099
         OI    SPFLAG3,SPFCHN         YES, SIGNAL ISPMODE               03500099
         NI    #ACTIONT,255-X'80'     TURN OFF NEWML IF ON              03510099
         NI    #ACTIONE,255-X'80'     TURN OFF NEWML IF ON              03520099
         BR    R14                    RETURN                            03530099
MEMLI$T  DC    CL8'MEMLIST'                                             03540099
         SPACE 3                                                        03550000
PARSEINN CSECT                                                          03560000
         USING PDLAMB,R6                                      DRK OCT12 03570099
         USING *,R4                                                     03580099
ZAMB     MVC   #AMBLOUT(1),AMBLOUT+1  SAVE XREF/BOTH                    03590099
         B     PARSPOST                                                 03600099
         SPACE 2                                                        03610099
         USING PDLATTR,R6                                               03620000
         USING *,R4                                                     03630000
ZATTRIB  MVC   #ALIAOPT(1),INFOALIA+1     SAVE ALIASINFO/NOALIAS/SHORT  03640000
         MVC   #LKEDOPT(1),INFOLKED+1     SAVE LKEDDATE/NOLKEDDATE      03650000
         MVC   #RLDERR(1),LKEDRLDF+1      SAVE RLDFIX/NORLDFIX          03660000
         MVC   #UNALIAS(1),LKEDUNAL+1     SAVE UNALIAS                  03670000
         MVC   #ADDSTAT(1),LKEDNONE+1     SAVE NONE/ADDSTAT             03680000
         MVC   #EXTEND(1),LKEDEXT+1       SAVE NOEXTEND/EXTEND          03690000
         MVC   #LONGOPT(1),SPFLONG+1      SAVE LONG                     03700000