         MACRO M$TX    - DEFINE AN ERROR/STATUS MESSAGE VIA DC          00010002
&NAME    M$TX  &TEXT                                                    00030002
         LCLA  &A                                                       00040002
&A       SETA  K'&TEXT-2+4                                              00050002
&NAME    DC    AL2(&A,0),C&TEXT              NORMAL MESSAGE             00060002
         MEND                                                           00070002
